12
79014
O          1.03959        0.00176        0.12205
O          0.45927        0.02372        2.86373
O          1.97992       -2.47977       -0.61957
C          0.50897       -1.16086        0.76237
C          0.95652       -1.14828        2.21976
C          0.98711       -2.43716        0.10200
H         -0.58085       -1.10448        0.68235
H          0.59284       -2.02594        2.76336
H          2.04947       -1.12530        2.29443
H          0.40444       -3.34744        0.33309
H          1.92646       -0.24789       -0.20796
H          0.61995        0.76039        2.23938
